modelo_opendss/seccionadoras_mt.dss
new line.SC_5253992 phases=3 bus1=78864585002188 bus2=78864585002188B
~ switch=y r1=1e-4 x1=1e-4 length=0.001 units=km
new line.SC_5270533 phases=3 bus1=80435405001990 bus2=80435405001990B
~ switch=y r1=1e-4 x1=1e-4 length=0.001 units=km
new line.SC_5270534 phases=3 bus1=80436615001990 bus2=80436615001990B
~ switch=y r1=1e-4 x1=1e-4 length=0.001 units=km
new line.SC_5270535 phases=3 bus1=80437575001990 bus2=80437575001990B
~ switch=y r1=1e-4 x1=1e-4 length=0.001 units=km
new line.SC_5270536 phases=3 bus1=80436175001990 bus2=80436175001990B
~ switch=y r1=1e-4 x1=1e-4 length=0.001 units=km
new line.SC_5270537 phases=3 bus1=80438995001990 bus2=80438995001990B
~ switch=y r1=1e-4 x1=1e-4 length=0.001 units=km
new line.SC_5270549 phases=3 bus1=80433815001990 bus2=80433815001990B
~ switch=y r1=1e-4 x1=1e-4 length=0.001 units=km
new line.SC_5270550 phases=3 bus1=80434025001990 bus2=80434025001990B
~ switch=y r1=1e-4 x1=1e-4 length=0.001 units=km
new line.SC_5270551 phases=3 bus1=80434065001990 bus2=80434065001990B
~ switch=y r1=1e-4 x1=1e-4 length=0.001 units=km
new line.SC_5270552 phases=3 bus1=80434135001990 bus2=80434135001990B
~ switch=y r1=1e-4 x1=1e-4 length=0.001 units=km
new line.SC_5270553 phases=3 bus1=80434435001990 bus2=80434435001990B
~ switch=y r1=1e-4 x1=1e-4 length=0.001 units=km
new line.SC_5270554 phases=3 bus1=80436565001990 bus2=80436565001990B
~ switch=y r1=1e-4 x1=1e-4 length=0.001 units=km
new line.SC_5270555 phases=3 bus1=80437635001990 bus2=80437635001990B
~ switch=y r1=1e-4 x1=1e-4 length=0.001 units=km
new line.SC_5270558 phases=3 bus1=80437805001990 bus2=80437805001990B
~ switch=y r1=1e-4 x1=1e-4 length=0.001 units=km
new line.SC_5270559 phases=3 bus1=80437185001990 bus2=80437185001990B
~ switch=y r1=1e-4 x1=1e-4 length=0.001 units=km
new line.SC_5270560 phases=3 bus1=80435985001990 bus2=80435985001990B
~ switch=y r1=1e-4 x1=1e-4 length=0.001 units=km
new line.SC_5270602 phases=3 bus1=80443805001991 bus2=80443805001991B
~ switch=y r1=1e-4 x1=1e-4 length=0.001 units=km
new line.SC_5270603 phases=3 bus1=80443705001991 bus2=80443705001991B
~ switch=y r1=1e-4 x1=1e-4 length=0.001 units=km
new line.SC_5270604 phases=3 bus1=80445705001991 bus2=80445705001991B
~ switch=y r1=1e-4 x1=1e-4 length=0.001 units=km
new line.SC_5270605 phases=3 bus1=80445735001991 bus2=80445735001991B
~ switch=y r1=1e-4 x1=1e-4 length=0.001 units=km
new line.SC_5270606 phases=3 bus1=80446185001991 bus2=80446185001991B
~ switch=y r1=1e-4 x1=1e-4 length=0.001 units=km
new line.SC_5270607 phases=3 bus1=80446725001991 bus2=80446725001991B
~ switch=y r1=1e-4 x1=1e-4 length=0.001 units=km
new line.SC_5270608 phases=3 bus1=80446675001991 bus2=80446675001991B
~ switch=y r1=1e-4 x1=1e-4 length=0.001 units=km
new line.SC_5270609 phases=3 bus1=80446685001991 bus2=80446685001991B
~ switch=y r1=1e-4 x1=1e-4 length=0.001 units=km
new line.SC_5270611 phases=3 bus1=80446655001991 bus2=80446655001991B
~ switch=y r1=1e-4 x1=1e-4 length=0.001 units=km
new line.SC_5270612 phases=3 bus1=80444625001991 bus2=80444625001991B
~ switch=y r1=1e-4 x1=1e-4 length=0.001 units=km
new line.SC_5270613 phases=3 bus1=80444545001991 bus2=80444545001991B
~ switch=y r1=1e-4 x1=1e-4 length=0.001 units=km
open line.SC_5270613 1
new line.SC_5270614 phases=3 bus1=80445665001994 bus2=80445665001994B
~ switch=y r1=1e-4 x1=1e-4 length=0.001 units=km
new line.SC_5270615 phases=3 bus1=80445625001991 bus2=80445625001991B
~ switch=y r1=1e-4 x1=1e-4 length=0.001 units=km
new line.SC_5270618 phases=3 bus1=80445235001991 bus2=80445235001991B
~ switch=y r1=1e-4 x1=1e-4 length=0.001 units=km
new line.SC_5270619 phases=3 bus1=80446785001991 bus2=80446785001991B
~ switch=y r1=1e-4 x1=1e-4 length=0.001 units=km
open line.SC_5270619 1
new line.SC_5270621 phases=3 bus1=80447545001991 bus2=80447545001991B
~ switch=y r1=1e-4 x1=1e-4 length=0.001 units=km
new line.SC_5270668 phases=3 bus1=80442605001991 bus2=80442605001991B
~ switch=y r1=1e-4 x1=1e-4 length=0.001 units=km
new line.SC_5270669 phases=3 bus1=80440675001991 bus2=80440675001991B
~ switch=y r1=1e-4 x1=1e-4 length=0.001 units=km
new line.SC_5270670 phases=3 bus1=80443065001991 bus2=80443065001991B
~ switch=y r1=1e-4 x1=1e-4 length=0.001 units=km
new line.SC_5270671 phases=3 bus1=80443725001991 bus2=80443725001991B
~ switch=y r1=1e-4 x1=1e-4 length=0.001 units=km
new line.SC_5270672 phases=3 bus1=80443775001991 bus2=80443775001991B
~ switch=y r1=1e-4 x1=1e-4 length=0.001 units=km
new line.SC_5270673 phases=3 bus1=80441195001991 bus2=80441195001991B
~ switch=y r1=1e-4 x1=1e-4 length=0.001 units=km
new line.SC_5270674 phases=3 bus1=80440945008500 bus2=80440945008500B
~ switch=y r1=1e-4 x1=1e-4 length=0.001 units=km
new line.SC_5270675 phases=3 bus1=80441505001991 bus2=80441505001991B
~ switch=y r1=1e-4 x1=1e-4 length=0.001 units=km
new line.SC_5270676 phases=3 bus1=80441525001991 bus2=80441525001991B
~ switch=y r1=1e-4 x1=1e-4 length=0.001 units=km
new line.SC_5270677 phases=3 bus1=80442015001991 bus2=80442015001991B
~ switch=y r1=1e-4 x1=1e-4 length=0.001 units=km
new line.SC_5270694 phases=3 bus1=80442025001991 bus2=80442025001991B
~ switch=y r1=1e-4 x1=1e-4 length=0.001 units=km
new line.SC_5270695 phases=3 bus1=80445485001991 bus2=80445485001991B
~ switch=y r1=1e-4 x1=1e-4 length=0.001 units=km
new line.SC_5270696 phases=3 bus1=80446285001991 bus2=80446285001991B
~ switch=y r1=1e-4 x1=1e-4 length=0.001 units=km
new line.SC_5270697 phases=3 bus1=80446305001991 bus2=80446305001991B
~ switch=y r1=1e-4 x1=1e-4 length=0.001 units=km
new line.SC_5270698 phases=3 bus1=80446395001991 bus2=80446395001991B
~ switch=y r1=1e-4 x1=1e-4 length=0.001 units=km
new line.SC_5270699 phases=3 bus1=80446055001991 bus2=80446055001991B
~ switch=y r1=1e-4 x1=1e-4 length=0.001 units=km
new line.SC_5270701 phases=3 bus1=80444365001991 bus2=80444365001991B
~ switch=y r1=1e-4 x1=1e-4 length=0.001 units=km
new line.SC_5270702 phases=3 bus1=80445715001991 bus2=80445715001991B
~ switch=y r1=1e-4 x1=1e-4 length=0.001 units=km
new line.SC_5270703 phases=3 bus1=80446165001991 bus2=80446165001991B
~ switch=y r1=1e-4 x1=1e-4 length=0.001 units=km
new line.SC_5270704 phases=3 bus1=80446325001991 bus2=80446325001991B
~ switch=y r1=1e-4 x1=1e-4 length=0.001 units=km
new line.SC_5270705 phases=3 bus1=80444325001991 bus2=80444325001991B
~ switch=y r1=1e-4 x1=1e-4 length=0.001 units=km
new line.SC_5270706 phases=3 bus1=80446935001991 bus2=80446935001991B
~ switch=y r1=1e-4 x1=1e-4 length=0.001 units=km
new line.SC_5270708 phases=3 bus1=80445615001991 bus2=80445615001991B
~ switch=y r1=1e-4 x1=1e-4 length=0.001 units=km
new line.SC_5270709 phases=3 bus1=80446695001991 bus2=80446695001991B
~ switch=y r1=1e-4 x1=1e-4 length=0.001 units=km
new line.SC_5270710 phases=3 bus1=80447065001991 bus2=80447065001991B
~ switch=y r1=1e-4 x1=1e-4 length=0.001 units=km
new line.SC_5270711 phases=3 bus1=80447305001991 bus2=80447305001991B
~ switch=y r1=1e-4 x1=1e-4 length=0.001 units=km
new line.SC_5270712 phases=3 bus1=80447085001991 bus2=80447085001991B
~ switch=y r1=1e-4 x1=1e-4 length=0.001 units=km
new line.SC_5270713 phases=3 bus1=80447335001991 bus2=80447335001991B
~ switch=y r1=1e-4 x1=1e-4 length=0.001 units=km
new line.SC_5270714 phases=3 bus1=80447455001991 bus2=80447455001991B
~ switch=y r1=1e-4 x1=1e-4 length=0.001 units=km
new line.SC_5270715 phases=3 bus1=80447575001991 bus2=80447575001991B
~ switch=y r1=1e-4 x1=1e-4 length=0.001 units=km
new line.SC_5270716 phases=3 bus1=80446575001991 bus2=80446575001991B
~ switch=y r1=1e-4 x1=1e-4 length=0.001 units=km
new line.SC_5270770 phases=3 bus1=80450975002412 bus2=80450975002412B
~ switch=y r1=1e-4 x1=1e-4 length=0.001 units=km
new line.SC_5270771 phases=3 bus1=80450835001992 bus2=80450835001992B
~ switch=y r1=1e-4 x1=1e-4 length=0.001 units=km
new line.SC_5270772 phases=3 bus1=80458215002412 bus2=80458215002412B
~ switch=y r1=1e-4 x1=1e-4 length=0.001 units=km
new line.SC_5270773 phases=3 bus1=80454115001992 bus2=80454115001992B
~ switch=y r1=1e-4 x1=1e-4 length=0.001 units=km
new line.SC_5270776 phases=3 bus1=80465415001992 bus2=80465415001992B
~ switch=y r1=1e-4 x1=1e-4 length=0.001 units=km
new line.SC_5270777 phases=3 bus1=80465425001992 bus2=80465425001992B
~ switch=y r1=1e-4 x1=1e-4 length=0.001 units=km
new line.SC_5270814 phases=3 bus1=80449465002412 bus2=80449465002412B
~ switch=y r1=1e-4 x1=1e-4 length=0.001 units=km
new line.SC_5270819 phases=3 bus1=80448495002412 bus2=80448495002412B
~ switch=y r1=1e-4 x1=1e-4 length=0.001 units=km
new line.SC_5270823 phases=3 bus1=80457915002412 bus2=80457915002412B
~ switch=y r1=1e-4 x1=1e-4 length=0.001 units=km
new line.SC_5270824 phases=3 bus1=80457975002412 bus2=80457975002412B
~ switch=y r1=1e-4 x1=1e-4 length=0.001 units=km
new line.SC_5270825 phases=3 bus1=80458085002412 bus2=80458085002412B
~ switch=y r1=1e-4 x1=1e-4 length=0.001 units=km
new line.SC_5270826 phases=3 bus1=80449875002412 bus2=80449875002412B
~ switch=y r1=1e-4 x1=1e-4 length=0.001 units=km
new line.SC_5270828 phases=3 bus1=80457645002412 bus2=80457645002412B
~ switch=y r1=1e-4 x1=1e-4 length=0.001 units=km
new line.SC_5270833 phases=3 bus1=80453245001992 bus2=80453245001992B
~ switch=y r1=1e-4 x1=1e-4 length=0.001 units=km
new line.SC_5270834 phases=3 bus1=80453775001992 bus2=80453775001992B
~ switch=y r1=1e-4 x1=1e-4 length=0.001 units=km
new line.SC_5270840 phases=3 bus1=80463445001992 bus2=80463445001992B
~ switch=y r1=1e-4 x1=1e-4 length=0.001 units=km
new line.SC_5270842 phases=3 bus1=80464225001992 bus2=80464225001992B
~ switch=y r1=1e-4 x1=1e-4 length=0.001 units=km
new line.SC_5270843 phases=3 bus1=80464235001992 bus2=80464235001992B
~ switch=y r1=1e-4 x1=1e-4 length=0.001 units=km
new line.SC_5270844 phases=3 bus1=80465575001992 bus2=80465575001992B
~ switch=y r1=1e-4 x1=1e-4 length=0.001 units=km
new line.SC_5270845 phases=3 bus1=80465625001992 bus2=80465625001992B
~ switch=y r1=1e-4 x1=1e-4 length=0.001 units=km
new line.SC_5270846 phases=3 bus1=80465455001992 bus2=80465455001992B
~ switch=y r1=1e-4 x1=1e-4 length=0.001 units=km
new line.SC_5270847 phases=3 bus1=80458305002412 bus2=80458305002412B
~ switch=y r1=1e-4 x1=1e-4 length=0.001 units=km
new line.SC_5270851 phases=3 bus1=80459835001992 bus2=80459835001992B
~ switch=y r1=1e-4 x1=1e-4 length=0.001 units=km
new line.SC_5270852 phases=3 bus1=80461825001992 bus2=80461825001992B
~ switch=y r1=1e-4 x1=1e-4 length=0.001 units=km
new line.SC_5270853 phases=3 bus1=80461835001992 bus2=80461835001992B
~ switch=y r1=1e-4 x1=1e-4 length=0.001 units=km
new line.SC_5270854 phases=3 bus1=80460965002412 bus2=80460965002412B
~ switch=y r1=1e-4 x1=1e-4 length=0.001 units=km
new line.SC_5270856 phases=3 bus1=80458675002412 bus2=80458675002412B
~ switch=y r1=1e-4 x1=1e-4 length=0.001 units=km
new line.SC_5270860 phases=3 bus1=80458175002412 bus2=80458175002412B
~ switch=y r1=1e-4 x1=1e-4 length=0.001 units=km
new line.SC_5270992 phases=3 bus1=80471705001993 bus2=80471705001993B
~ switch=y r1=1e-4 x1=1e-4 length=0.001 units=km
new line.SC_5270993 phases=3 bus1=80465755001993 bus2=80465755001993B
~ switch=y r1=1e-4 x1=1e-4 length=0.001 units=km
new line.SC_5270994 phases=3 bus1=80468755001993 bus2=80468755001993B
~ switch=y r1=1e-4 x1=1e-4 length=0.001 units=km
new line.SC_5271000 phases=3 bus1=80467825001993 bus2=80467825001993B
~ switch=y r1=1e-4 x1=1e-4 length=0.001 units=km
new line.SC_5271001 phases=3 bus1=80468355001993 bus2=80468355001993B
~ switch=y r1=1e-4 x1=1e-4 length=0.001 units=km
new line.SC_5271002 phases=3 bus1=80467885001993 bus2=80467885001993B
~ switch=y r1=1e-4 x1=1e-4 length=0.001 units=km
new line.SC_5271032 phases=3 bus1=80471855001993 bus2=80471855001993B
~ switch=y r1=1e-4 x1=1e-4 length=0.001 units=km
new line.SC_5271033 phases=3 bus1=80471685001993 bus2=80471685001993B
~ switch=y r1=1e-4 x1=1e-4 length=0.001 units=km
new line.SC_5271034 phases=3 bus1=80471545001993 bus2=80471545001993B
~ switch=y r1=1e-4 x1=1e-4 length=0.001 units=km
new line.SC_5271035 phases=3 bus1=80469005001993 bus2=80469005001993B
~ switch=y r1=1e-4 x1=1e-4 length=0.001 units=km
new line.SC_5271036 phases=3 bus1=80469625001993 bus2=80469625001993B
~ switch=y r1=1e-4 x1=1e-4 length=0.001 units=km
new line.SC_5271037 phases=3 bus1=80469705007257 bus2=80469705007257B
~ switch=y r1=1e-4 x1=1e-4 length=0.001 units=km
new line.SC_5271065 phases=3 bus1=80474025001994 bus2=80474025001994B
~ switch=y r1=1e-4 x1=1e-4 length=0.001 units=km
new line.SC_5271066 phases=3 bus1=80473265002410 bus2=80473265002410B
~ switch=y r1=1e-4 x1=1e-4 length=0.001 units=km
new line.SC_5271067 phases=3 bus1=80472765002410 bus2=80472765002410B
~ switch=y r1=1e-4 x1=1e-4 length=0.001 units=km
new line.SC_5271069 phases=3 bus1=80476575001991 bus2=80476575001991B
~ switch=y r1=1e-4 x1=1e-4 length=0.001 units=km
new line.SC_5271070 phases=3 bus1=80475285001994 bus2=80475285001994B
~ switch=y r1=1e-4 x1=1e-4 length=0.001 units=km
new line.SC_5271074 phases=3 bus1=80477045001991 bus2=80477045001991B
~ switch=y r1=1e-4 x1=1e-4 length=0.001 units=km
new line.SC_5271075 phases=3 bus1=80476725001991 bus2=80476725001991B
~ switch=y r1=1e-4 x1=1e-4 length=0.001 units=km
new line.SC_5271076 phases=3 bus1=80476965001991 bus2=80476965001991B
~ switch=y r1=1e-4 x1=1e-4 length=0.001 units=km
new line.SC_5271136 phases=3 bus1=80474115001994 bus2=80474115001994B
~ switch=y r1=1e-4 x1=1e-4 length=0.001 units=km
new line.SC_5271139 phases=3 bus1=80474515002410 bus2=80474515002410B
~ switch=y r1=1e-4 x1=1e-4 length=0.001 units=km
new line.SC_5271140 phases=3 bus1=80474545002410 bus2=80474545002410B
~ switch=y r1=1e-4 x1=1e-4 length=0.001 units=km
new line.SC_5271142 phases=3 bus1=80473585001994 bus2=80473585001994B
~ switch=y r1=1e-4 x1=1e-4 length=0.001 units=km
new line.SC_5271143 phases=3 bus1=80473605001994 bus2=80473605001994B
~ switch=y r1=1e-4 x1=1e-4 length=0.001 units=km
new line.SC_5271147 phases=3 bus1=80475805001991 bus2=80475805001991B
~ switch=y r1=1e-4 x1=1e-4 length=0.001 units=km
new line.SC_5271148 phases=3 bus1=80475865001991 bus2=80475865001991B
~ switch=y r1=1e-4 x1=1e-4 length=0.001 units=km
new line.SC_5271149 phases=3 bus1=80475375001991 bus2=80475375001991B
~ switch=y r1=1e-4 x1=1e-4 length=0.001 units=km
new line.SC_5271151 phases=3 bus1=80474725001994 bus2=80474725001994B
~ switch=y r1=1e-4 x1=1e-4 length=0.001 units=km
new line.SC_5271157 phases=3 bus1=80475465001991 bus2=80475465001991B
~ switch=y r1=1e-4 x1=1e-4 length=0.001 units=km
new line.SC_5271160 phases=3 bus1=80476755001991 bus2=80476755001991B
~ switch=y r1=1e-4 x1=1e-4 length=0.001 units=km
new line.SC_5271161 phases=3 bus1=80477035001991 bus2=80477035001991B
~ switch=y r1=1e-4 x1=1e-4 length=0.001 units=km
new line.SC_5271162 phases=3 bus1=80478015001994 bus2=80478015001994B
~ switch=y r1=1e-4 x1=1e-4 length=0.001 units=km
new line.SC_5271164 phases=3 bus1=80476945001991 bus2=80476945001991B
~ switch=y r1=1e-4 x1=1e-4 length=0.001 units=km
new line.SC_5271165 phases=3 bus1=80477055001991 bus2=80477055001991B
~ switch=y r1=1e-4 x1=1e-4 length=0.001 units=km
new line.SC_5271166 phases=3 bus1=80478355001991 bus2=80478355001991B
~ switch=y r1=1e-4 x1=1e-4 length=0.001 units=km
new line.SC_5271167 phases=3 bus1=80478395001991 bus2=80478395001991B
~ switch=y r1=1e-4 x1=1e-4 length=0.001 units=km
new line.SC_5271246 phases=3 bus1=80482865001995 bus2=80482865001995B
~ switch=y r1=1e-4 x1=1e-4 length=0.001 units=km
new line.SC_5271247 phases=3 bus1=80479595001995 bus2=80479595001995B
~ switch=y r1=1e-4 x1=1e-4 length=0.001 units=km
new line.SC_5271248 phases=3 bus1=80481115001995 bus2=80481115001995B
~ switch=y r1=1e-4 x1=1e-4 length=0.001 units=km
new line.SC_5271249 phases=3 bus1=80480865008497 bus2=80480865008497B
~ switch=y r1=1e-4 x1=1e-4 length=0.001 units=km
new line.SC_5271250 phases=3 bus1=80480525001995 bus2=80480525001995B
~ switch=y r1=1e-4 x1=1e-4 length=0.001 units=km
new line.SC_5271251 phases=3 bus1=80480825001995 bus2=80480825001995B
~ switch=y r1=1e-4 x1=1e-4 length=0.001 units=km
open line.SC_5271251 1
new line.SC_5271252 phases=3 bus1=80484065001995 bus2=80484065001995B
~ switch=y r1=1e-4 x1=1e-4 length=0.001 units=km
new line.SC_5271287 phases=3 bus1=80479525001995 bus2=80479525001995B
~ switch=y r1=1e-4 x1=1e-4 length=0.001 units=km
new line.SC_5271289 phases=3 bus1=80480785001995 bus2=80480785001995B
~ switch=y r1=1e-4 x1=1e-4 length=0.001 units=km
new line.SC_5271292 phases=3 bus1=80479495001995 bus2=80479495001995B
~ switch=y r1=1e-4 x1=1e-4 length=0.001 units=km
new line.SC_5271293 phases=3 bus1=80483655001995 bus2=80483655001995B
~ switch=y r1=1e-4 x1=1e-4 length=0.001 units=km
new line.SC_5271296 phases=3 bus1=80482685001995 bus2=80482685001995B
~ switch=y r1=1e-4 x1=1e-4 length=0.001 units=km
new line.SC_5271333 phases=3 bus1=80487535001992 bus2=80487535001992B
~ switch=y r1=1e-4 x1=1e-4 length=0.001 units=km
new line.SC_5271335 phases=3 bus1=80484595001996 bus2=80484595001996B
~ switch=y r1=1e-4 x1=1e-4 length=0.001 units=km
new line.SC_5271337 phases=3 bus1=80453995001992 bus2=80453995001992B
~ switch=y r1=1e-4 x1=1e-4 length=0.001 units=km
new line.SC_5271338 phases=3 bus1=80497805001996 bus2=80497805001996B
~ switch=y r1=1e-4 x1=1e-4 length=0.001 units=km
new line.SC_5271339 phases=3 bus1=80488865001992 bus2=80488865001992B
~ switch=y r1=1e-4 x1=1e-4 length=0.001 units=km
new line.SC_5271340 phases=3 bus1=80488895001992 bus2=80488895001992B
~ switch=y r1=1e-4 x1=1e-4 length=0.001 units=km
new line.SC_5271341 phases=3 bus1=80499275001996 bus2=80499275001996B
~ switch=y r1=1e-4 x1=1e-4 length=0.001 units=km
new line.SC_5271342 phases=3 bus1=80500365001996 bus2=80500365001996B
~ switch=y r1=1e-4 x1=1e-4 length=0.001 units=km
new line.SC_5271343 phases=3 bus1=80500055001996 bus2=80500055001996B
~ switch=y r1=1e-4 x1=1e-4 length=0.001 units=km
new line.SC_5271375 phases=3 bus1=80489165001992 bus2=80489165001992B
~ switch=y r1=1e-4 x1=1e-4 length=0.001 units=km
new line.SC_5271376 phases=3 bus1=80489215001992 bus2=80489215001992B
~ switch=y r1=1e-4 x1=1e-4 length=0.001 units=km
new line.SC_5271377 phases=3 bus1=80485015001992 bus2=80485015001992B
~ switch=y r1=1e-4 x1=1e-4 length=0.001 units=km
new line.SC_5271379 phases=3 bus1=80492505001992 bus2=80492505001992B
~ switch=y r1=1e-4 x1=1e-4 length=0.001 units=km
new line.SC_5271380 phases=3 bus1=80492585001992 bus2=80492585001992B
~ switch=y r1=1e-4 x1=1e-4 length=0.001 units=km
new line.SC_5271381 phases=3 bus1=80492635001992 bus2=80492635001992B
~ switch=y r1=1e-4 x1=1e-4 length=0.001 units=km
new line.SC_5271382 phases=3 bus1=80486855001992 bus2=80486855001992B
~ switch=y r1=1e-4 x1=1e-4 length=0.001 units=km
new line.SC_5271384 phases=3 bus1=80486935001992 bus2=80486935001992B
~ switch=y r1=1e-4 x1=1e-4 length=0.001 units=km
new line.SC_5271385 phases=3 bus1=80491605001992 bus2=80491605001992B
~ switch=y r1=1e-4 x1=1e-4 length=0.001 units=km
new line.SC_5271386 phases=3 bus1=80491645001992 bus2=80491645001992B
~ switch=y r1=1e-4 x1=1e-4 length=0.001 units=km
new line.SC_5271388 phases=3 bus1=80493435001992 bus2=80493435001992B
~ switch=y r1=1e-4 x1=1e-4 length=0.001 units=km
new line.SC_5271389 phases=3 bus1=80498985001996 bus2=80498985001996B
~ switch=y r1=1e-4 x1=1e-4 length=0.001 units=km
new line.SC_5271393 phases=3 bus1=80496575001996 bus2=80496575001996B
~ switch=y r1=1e-4 x1=1e-4 length=0.001 units=km
new line.SC_5271394 phases=3 bus1=80488765001992 bus2=80488765001992B
~ switch=y r1=1e-4 x1=1e-4 length=0.001 units=km
new line.SC_5271395 phases=3 bus1=80488815001992 bus2=80488815001992B
~ switch=y r1=1e-4 x1=1e-4 length=0.001 units=km
new line.SC_5271396 phases=3 bus1=80495135001992 bus2=80495135001992B
~ switch=y r1=1e-4 x1=1e-4 length=0.001 units=km
new line.SC_5271397 phases=3 bus1=80495985001992 bus2=80495985001992B
~ switch=y r1=1e-4 x1=1e-4 length=0.001 units=km
new line.SC_5271399 phases=3 bus1=80497455001992 bus2=80497455001992B
~ switch=y r1=1e-4 x1=1e-4 length=0.001 units=km
new line.SC_5271401 phases=3 bus1=80497025001996 bus2=80497025001996B
~ switch=y r1=1e-4 x1=1e-4 length=0.001 units=km
new line.SC_5271402 phases=3 bus1=80495875001992 bus2=80495875001992B
~ switch=y r1=1e-4 x1=1e-4 length=0.001 units=km
new line.SC_5271403 phases=3 bus1=80495225001992 bus2=80495225001992B
~ switch=y r1=1e-4 x1=1e-4 length=0.001 units=km
new line.SC_5271404 phases=3 bus1=80488775001992 bus2=80488775001992B
~ switch=y r1=1e-4 x1=1e-4 length=0.001 units=km
new line.SC_5271405 phases=3 bus1=80488735001992 bus2=80488735001992B
~ switch=y r1=1e-4 x1=1e-4 length=0.001 units=km
new line.SC_5271406 phases=3 bus1=80497745001992 bus2=80497745001992B
~ switch=y r1=1e-4 x1=1e-4 length=0.001 units=km
new line.SC_5271408 phases=3 bus1=80497935001992 bus2=80497935001992B
~ switch=y r1=1e-4 x1=1e-4 length=0.001 units=km
new line.SC_5271511 phases=3 bus1=80500805001997 bus2=80500805001997B
~ switch=y r1=1e-4 x1=1e-4 length=0.001 units=km
new line.SC_5271524 phases=3 bus1=80501135001998 bus2=80501135001998B
~ switch=y r1=1e-4 x1=1e-4 length=0.001 units=km
new line.SC_5271525 phases=3 bus1=80508235001998 bus2=80508235001998B
~ switch=y r1=1e-4 x1=1e-4 length=0.001 units=km
new line.SC_5271527 phases=3 bus1=80512065007259 bus2=80512065007259B
~ switch=y r1=1e-4 x1=1e-4 length=0.001 units=km
new line.SC_5271530 phases=3 bus1=80512935001998 bus2=80512935001998B
~ switch=y r1=1e-4 x1=1e-4 length=0.001 units=km
new line.SC_5271531 phases=3 bus1=80515755001998 bus2=80515755001998B
~ switch=y r1=1e-4 x1=1e-4 length=0.001 units=km
new line.SC_5271574 phases=3 bus1=80504505007259 bus2=80504505007259B
~ switch=y r1=1e-4 x1=1e-4 length=0.001 units=km
new line.SC_5271575 phases=3 bus1=80504765007259 bus2=80504765007259B
~ switch=y r1=1e-4 x1=1e-4 length=0.001 units=km
new line.SC_5271580 phases=3 bus1=80506585007259 bus2=80506585007259B
~ switch=y r1=1e-4 x1=1e-4 length=0.001 units=km
new line.SC_5271590 phases=3 bus1=80512185001998 bus2=99464275001998
~ switch=y r1=1e-4 x1=1e-4 length=0.001 units=km
new line.SC_5271591 phases=3 bus1=80510815001998 bus2=99464325001998
~ switch=y r1=1e-4 x1=1e-4 length=0.001 units=km
new line.SC_5271597 phases=3 bus1=80512545007259 bus2=80512545007259B
~ switch=y r1=1e-4 x1=1e-4 length=0.001 units=km
new line.SC_5271602 phases=3 bus1=93915505007259 bus2=93915505007259B
~ switch=y r1=1e-4 x1=1e-4 length=0.001 units=km
new line.SC_5271608 phases=3 bus1=80519195007259 bus2=80519195007259B
~ switch=y r1=1e-4 x1=1e-4 length=0.001 units=km
new line.SC_5271609 phases=3 bus1=80502135007259 bus2=80502135007259B
~ switch=y r1=1e-4 x1=1e-4 length=0.001 units=km
new line.SC_5271610 phases=3 bus1=80513925001998 bus2=80513925001998B
~ switch=y r1=1e-4 x1=1e-4 length=0.001 units=km
new line.SC_5271686 phases=3 bus1=80521075002413 bus2=80521075002413B
~ switch=y r1=1e-4 x1=1e-4 length=0.001 units=km
new line.SC_5271687 phases=3 bus1=80526185008497 bus2=80526185008497B
~ switch=y r1=1e-4 x1=1e-4 length=0.001 units=km
new line.SC_5271689 phases=3 bus1=80521475002413 bus2=80521475002413B
~ switch=y r1=1e-4 x1=1e-4 length=0.001 units=km
new line.SC_5271693 phases=3 bus1=80483365001995 bus2=80483365001995B
~ switch=y r1=1e-4 x1=1e-4 length=0.001 units=km
new line.SC_5271694 phases=3 bus1=80524655002413 bus2=80524655002413B
~ switch=y r1=1e-4 x1=1e-4 length=0.001 units=km
new line.SC_5271770 phases=3 bus1=80524215001995 bus2=80524215001995B
~ switch=y r1=1e-4 x1=1e-4 length=0.001 units=km
new line.SC_5271771 phases=3 bus1=80525535001995 bus2=80525535001995B
~ switch=y r1=1e-4 x1=1e-4 length=0.001 units=km
new line.SC_5271779 phases=3 bus1=80480845002413 bus2=80480845002413B
~ switch=y r1=1e-4 x1=1e-4 length=0.001 units=km
new line.SC_5271781 phases=3 bus1=80521505002413 bus2=80521505002413B
~ switch=y r1=1e-4 x1=1e-4 length=0.001 units=km
new line.SC_5271789 phases=3 bus1=80522095001995 bus2=80522095001995B
~ switch=y r1=1e-4 x1=1e-4 length=0.001 units=km
new line.SC_5271790 phases=3 bus1=80522155001995 bus2=80522155001995B
~ switch=y r1=1e-4 x1=1e-4 length=0.001 units=km
new line.SC_5271793 phases=3 bus1=80522285001995 bus2=80522285001995B
~ switch=y r1=1e-4 x1=1e-4 length=0.001 units=km
new line.SC_5271794 phases=3 bus1=80522515001995 bus2=80522515001995B
~ switch=y r1=1e-4 x1=1e-4 length=0.001 units=km
new line.SC_5271795 phases=3 bus1=80522465001995 bus2=80522465001995B
~ switch=y r1=1e-4 x1=1e-4 length=0.001 units=km
new line.SC_5271796 phases=3 bus1=80524695002413 bus2=80524695002413B
~ switch=y r1=1e-4 x1=1e-4 length=0.001 units=km
new line.SC_5271797 phases=3 bus1=80524685002413 bus2=80524685002413B
~ switch=y r1=1e-4 x1=1e-4 length=0.001 units=km
new line.SC_5271798 phases=3 bus1=80527165002413 bus2=80527165002413B
~ switch=y r1=1e-4 x1=1e-4 length=0.001 units=km
new line.SC_5271799 phases=3 bus1=80527325001995 bus2=80527325001995B
~ switch=y r1=1e-4 x1=1e-4 length=0.001 units=km
new line.SC_5271800 phases=3 bus1=80524595001995 bus2=80524595001995B
~ switch=y r1=1e-4 x1=1e-4 length=0.001 units=km
new line.SC_5271801 phases=3 bus1=80526895002413 bus2=80526895002413B
~ switch=y r1=1e-4 x1=1e-4 length=0.001 units=km
new line.SC_5271811 phases=3 bus1=80527135002413 bus2=80527135002413B
~ switch=y r1=1e-4 x1=1e-4 length=0.001 units=km
new line.SC_5271901 phases=3 bus1=80530715002412 bus2=80530715002412B
~ switch=y r1=1e-4 x1=1e-4 length=0.001 units=km
new line.SC_5271903 phases=3 bus1=80533535002210 bus2=80533535002210B
~ switch=y r1=1e-4 x1=1e-4 length=0.001 units=km
new line.SC_5271904 phases=3 bus1=80537945007257 bus2=80537945007257B
~ switch=y r1=1e-4 x1=1e-4 length=0.001 units=km
new line.SC_5271905 phases=3 bus1=80471455001993 bus2=80471455001993B
~ switch=y r1=1e-4 x1=1e-4 length=0.001 units=km
new line.SC_5271907 phases=3 bus1=80535155002210 bus2=80535155002210B
~ switch=y r1=1e-4 x1=1e-4 length=0.001 units=km
new line.SC_5271908 phases=3 bus1=80439915002412 bus2=80439915002412B
~ switch=y r1=1e-4 x1=1e-4 length=0.001 units=km
new line.SC_5271945 phases=3 bus1=80530125002210 bus2=80530125002210B
~ switch=y r1=1e-4 x1=1e-4 length=0.001 units=km
new line.SC_5271948 phases=3 bus1=80532735002210 bus2=80532735002210B
~ switch=y r1=1e-4 x1=1e-4 length=0.001 units=km
new line.SC_5271949 phases=3 bus1=80533045002210 bus2=80533045002210B
~ switch=y r1=1e-4 x1=1e-4 length=0.001 units=km
new line.SC_5271953 phases=3 bus1=80533155002210 bus2=80533155002210B
~ switch=y r1=1e-4 x1=1e-4 length=0.001 units=km
new line.SC_5271954 phases=3 bus1=80533895002210 bus2=80533895002210B
~ switch=y r1=1e-4 x1=1e-4 length=0.001 units=km
new line.SC_5271955 phases=3 bus1=80534295002210 bus2=80534295002210B
~ switch=y r1=1e-4 x1=1e-4 length=0.001 units=km
new line.SC_5271957 phases=3 bus1=80535595002210 bus2=80535595002210B
~ switch=y r1=1e-4 x1=1e-4 length=0.001 units=km
new line.SC_5271961 phases=3 bus1=80535205002210 bus2=80535205002210B
~ switch=y r1=1e-4 x1=1e-4 length=0.001 units=km
open line.SC_5271961 1
new line.SC_5271962 phases=3 bus1=80535135002210 bus2=80535135002210B
~ switch=y r1=1e-4 x1=1e-4 length=0.001 units=km
new line.SC_5271964 phases=3 bus1=80536265002210 bus2=80536265002210B
~ switch=y r1=1e-4 x1=1e-4 length=0.001 units=km
new line.SC_5271965 phases=3 bus1=80535855002210 bus2=80535855002210B
~ switch=y r1=1e-4 x1=1e-4 length=0.001 units=km
new line.SC_5271966 phases=3 bus1=83948885007257 bus2=83948885007257B
~ switch=y r1=1e-4 x1=1e-4 length=0.001 units=km
new line.SC_5271972 phases=3 bus1=80539995007257 bus2=80539995007257B
~ switch=y r1=1e-4 x1=1e-4 length=0.001 units=km
new line.SC_5271973 phases=3 bus1=80530915002412 bus2=80530915002412B
~ switch=y r1=1e-4 x1=1e-4 length=0.001 units=km
new line.SC_5271974 phases=3 bus1=80536965007257 bus2=80536965007257B
~ switch=y r1=1e-4 x1=1e-4 length=0.001 units=km
new line.SC_5272066 phases=3 bus1=80545445008497 bus2=80545445008497B
~ switch=y r1=1e-4 x1=1e-4 length=0.001 units=km
new line.SC_5272067 phases=3 bus1=80544345008497 bus2=80544345008497B
~ switch=y r1=1e-4 x1=1e-4 length=0.001 units=km
new line.SC_5272068 phases=3 bus1=80544575008497 bus2=80544575008497B
~ switch=y r1=1e-4 x1=1e-4 length=0.001 units=km
new line.SC_5272069 phases=3 bus1=80541735002411 bus2=80541735002411B
~ switch=y r1=1e-4 x1=1e-4 length=0.001 units=km
new line.SC_5272070 phases=3 bus1=80546855008497 bus2=80546855008497B
~ switch=y r1=1e-4 x1=1e-4 length=0.001 units=km
new line.SC_5272072 phases=3 bus1=80545955008497 bus2=80545955008497B
~ switch=y r1=1e-4 x1=1e-4 length=0.001 units=km
new line.SC_5272073 phases=3 bus1=80546025008497 bus2=80546025008497B
~ switch=y r1=1e-4 x1=1e-4 length=0.001 units=km
new line.SC_5272074 phases=3 bus1=80543225008497 bus2=80543225008497B
~ switch=y r1=1e-4 x1=1e-4 length=0.001 units=km
new line.SC_5272075 phases=3 bus1=80442505001991 bus2=80442505001991B
~ switch=y r1=1e-4 x1=1e-4 length=0.001 units=km
new line.SC_5272078 phases=3 bus1=80546245008497 bus2=80546245008497B
~ switch=y r1=1e-4 x1=1e-4 length=0.001 units=km
new line.SC_5272079 phases=3 bus1=80483155001995 bus2=80483155001995B
~ switch=y r1=1e-4 x1=1e-4 length=0.001 units=km
new line.SC_5272080 phases=3 bus1=80445395008497 bus2=80445395008497B
~ switch=y r1=1e-4 x1=1e-4 length=0.001 units=km
new line.SC_5272081 phases=3 bus1=80547955008497 bus2=80547955008497B
~ switch=y r1=1e-4 x1=1e-4 length=0.001 units=km
new line.SC_5272159 phases=3 bus1=80543435008498 bus2=80543435008498B
~ switch=y r1=1e-4 x1=1e-4 length=0.001 units=km
new line.SC_5272160 phases=3 bus1=80541365008497 bus2=80541365008497B
~ switch=y r1=1e-4 x1=1e-4 length=0.001 units=km
new line.SC_5272162 phases=3 bus1=80543475008498 bus2=80543475008498B
~ switch=y r1=1e-4 x1=1e-4 length=0.001 units=km
new line.SC_5272163 phases=3 bus1=80543615008498 bus2=80543615008498B
~ switch=y r1=1e-4 x1=1e-4 length=0.001 units=km
new line.SC_5272164 phases=3 bus1=80541875008498 bus2=80541875008498B
~ switch=y r1=1e-4 x1=1e-4 length=0.001 units=km
new line.SC_5272165 phases=3 bus1=80545425008497 bus2=80545425008497B
~ switch=y r1=1e-4 x1=1e-4 length=0.001 units=km
new line.SC_5272167 phases=3 bus1=80542515008498 bus2=80542515008498B
~ switch=y r1=1e-4 x1=1e-4 length=0.001 units=km
new line.SC_5272168 phases=3 bus1=80544685008497 bus2=80544685008497B
~ switch=y r1=1e-4 x1=1e-4 length=0.001 units=km
new line.SC_5272169 phases=3 bus1=80545295008497 bus2=80545295008497B
~ switch=y r1=1e-4 x1=1e-4 length=0.001 units=km
new line.SC_5272170 phases=3 bus1=80546895008497 bus2=80546895008497B
~ switch=y r1=1e-4 x1=1e-4 length=0.001 units=km
new line.SC_5272171 phases=3 bus1=80547565008497 bus2=80547565008497B
~ switch=y r1=1e-4 x1=1e-4 length=0.001 units=km
new line.SC_5272172 phases=3 bus1=80547525008497 bus2=80547525008497B
~ switch=y r1=1e-4 x1=1e-4 length=0.001 units=km
new line.SC_5272173 phases=3 bus1=80547465008497 bus2=80547465008497B
~ switch=y r1=1e-4 x1=1e-4 length=0.001 units=km
new line.SC_5272174 phases=3 bus1=80547625008497 bus2=80547625008497B
~ switch=y r1=1e-4 x1=1e-4 length=0.001 units=km
new line.SC_5272175 phases=3 bus1=80546165008497 bus2=80546165008497B
~ switch=y r1=1e-4 x1=1e-4 length=0.001 units=km
new line.SC_5272178 phases=3 bus1=80546405008497 bus2=80546405008497B
~ switch=y r1=1e-4 x1=1e-4 length=0.001 units=km
new line.SC_5272179 phases=3 bus1=80546435008497 bus2=80546435008497B
~ switch=y r1=1e-4 x1=1e-4 length=0.001 units=km
new line.SC_5272182 phases=3 bus1=80541195008498 bus2=80541195008498B
~ switch=y r1=1e-4 x1=1e-4 length=0.001 units=km
new line.SC_5272200 phases=3 bus1=80546035008497 bus2=80546035008497B
~ switch=y r1=1e-4 x1=1e-4 length=0.001 units=km
new line.SC_5272290 phases=3 bus1=80473245002410 bus2=80473245002410B
~ switch=y r1=1e-4 x1=1e-4 length=0.001 units=km
new line.SC_5272291 phases=3 bus1=80550915002410 bus2=80550915002410B
~ switch=y r1=1e-4 x1=1e-4 length=0.001 units=km
new line.SC_5272292 phases=3 bus1=80551735002410 bus2=80551735002410B
~ switch=y r1=1e-4 x1=1e-4 length=0.001 units=km
new line.SC_5272293 phases=3 bus1=80550735002410 bus2=80550735002410B
~ switch=y r1=1e-4 x1=1e-4 length=0.001 units=km
new line.SC_5272294 phases=3 bus1=80551955002410 bus2=80551955002410B
~ switch=y r1=1e-4 x1=1e-4 length=0.001 units=km
new line.SC_5272296 phases=3 bus1=80550395002410 bus2=80550395002410B
~ switch=y r1=1e-4 x1=1e-4 length=0.001 units=km
new line.SC_5272297 phases=3 bus1=80559335002410 bus2=80559335002410B
~ switch=y r1=1e-4 x1=1e-4 length=0.001 units=km
new line.SC_5272301 phases=3 bus1=80560645002410 bus2=80560645002410B
~ switch=y r1=1e-4 x1=1e-4 length=0.001 units=km
new line.SC_5272377 phases=3 bus1=80551175002410 bus2=80551175002410B
~ switch=y r1=1e-4 x1=1e-4 length=0.001 units=km
new line.SC_5272378 phases=3 bus1=80551215002410 bus2=80551215002410B
~ switch=y r1=1e-4 x1=1e-4 length=0.001 units=km
new line.SC_5272382 phases=3 bus1=80551665002410 bus2=80551665002410B
~ switch=y r1=1e-4 x1=1e-4 length=0.001 units=km
new line.SC_5272383 phases=3 bus1=80552275002410 bus2=80552275002410B
~ switch=y r1=1e-4 x1=1e-4 length=0.001 units=km
new line.SC_5272384 phases=3 bus1=80551915002410 bus2=80551915002410B
~ switch=y r1=1e-4 x1=1e-4 length=0.001 units=km
new line.SC_5272385 phases=3 bus1=80551675002410 bus2=80551675002410B
~ switch=y r1=1e-4 x1=1e-4 length=0.001 units=km
new line.SC_5272386 phases=3 bus1=80551685002410 bus2=80551685002410B
~ switch=y r1=1e-4 x1=1e-4 length=0.001 units=km
new line.SC_5272387 phases=3 bus1=80551905002410 bus2=80551905002410B
~ switch=y r1=1e-4 x1=1e-4 length=0.001 units=km
new line.SC_5272388 phases=3 bus1=80551925002410 bus2=80551925002410B
~ switch=y r1=1e-4 x1=1e-4 length=0.001 units=km
new line.SC_5272389 phases=3 bus1=80552165007258 bus2=80552165007258B
~ switch=y r1=1e-4 x1=1e-4 length=0.001 units=km
new line.SC_5272391 phases=3 bus1=80552535007258 bus2=80552535007258B
~ switch=y r1=1e-4 x1=1e-4 length=0.001 units=km
new line.SC_5272392 phases=3 bus1=80550465007258 bus2=80550465007258B
~ switch=y r1=1e-4 x1=1e-4 length=0.001 units=km
new line.SC_5272395 phases=3 bus1=80552925007258 bus2=80552925007258B
~ switch=y r1=1e-4 x1=1e-4 length=0.001 units=km
new line.SC_5272396 phases=3 bus1=80552985007258 bus2=80552985007258B
~ switch=y r1=1e-4 x1=1e-4 length=0.001 units=km
new line.SC_5272398 phases=3 bus1=80554535002410 bus2=80554535002410B
~ switch=y r1=1e-4 x1=1e-4 length=0.001 units=km
new line.SC_5272400 phases=3 bus1=80555295002410 bus2=80555295002410B
~ switch=y r1=1e-4 x1=1e-4 length=0.001 units=km
new line.SC_5272402 phases=3 bus1=80554395002410 bus2=80554395002410B
~ switch=y r1=1e-4 x1=1e-4 length=0.001 units=km
new line.SC_5272403 phases=3 bus1=80555075002410 bus2=80555075002410B
~ switch=y r1=1e-4 x1=1e-4 length=0.001 units=km
new line.SC_5272408 phases=3 bus1=80559445002410 bus2=80559445002410B
~ switch=y r1=1e-4 x1=1e-4 length=0.001 units=km
new line.SC_5272412 phases=3 bus1=80556065002410 bus2=80556065002410B
~ switch=y r1=1e-4 x1=1e-4 length=0.001 units=km
new line.SC_5284300 phases=3 bus1=80551945002410 bus2=80551945002410B
~ switch=y r1=1e-4 x1=1e-4 length=0.001 units=km
new line.SC_5284303 phases=3 bus1=80473255002410 bus2=80473255002410B
~ switch=y r1=1e-4 x1=1e-4 length=0.001 units=km
new line.SC_5284305 phases=3 bus1=81756285002410 bus2=81756285002410B
~ switch=y r1=1e-4 x1=1e-4 length=0.001 units=km
new line.SC_5284306 phases=3 bus1=81756315002410 bus2=81756315002410B
~ switch=y r1=1e-4 x1=1e-4 length=0.001 units=km
new line.SC_5284310 phases=3 bus1=81763185002148 bus2=81763185002148B
~ switch=y r1=1e-4 x1=1e-4 length=0.001 units=km
new line.SC_5284312 phases=3 bus1=80555065002410 bus2=80555065002410B
~ switch=y r1=1e-4 x1=1e-4 length=0.001 units=km
new line.SC_5284313 phases=3 bus1=80439955002148 bus2=80439955002148B
~ switch=y r1=1e-4 x1=1e-4 length=0.001 units=km
new line.SC_5284358 phases=3 bus1=81754435007258 bus2=81754435007258B
~ switch=y r1=1e-4 x1=1e-4 length=0.001 units=km
new line.SC_5284360 phases=3 bus1=81753815007258 bus2=81753815007258B
~ switch=y r1=1e-4 x1=1e-4 length=0.001 units=km
new line.SC_5284361 phases=3 bus1=80433905002148 bus2=80433905002148B
~ switch=y r1=1e-4 x1=1e-4 length=0.001 units=km
new line.SC_5284362 phases=3 bus1=81753515007258 bus2=81753515007258B
~ switch=y r1=1e-4 x1=1e-4 length=0.001 units=km
new line.SC_5284363 phases=3 bus1=81757245002410 bus2=81757245002410B
~ switch=y r1=1e-4 x1=1e-4 length=0.001 units=km
new line.SC_5284364 phases=3 bus1=81757355002410 bus2=81757355002410B
~ switch=y r1=1e-4 x1=1e-4 length=0.001 units=km
new line.SC_5284365 phases=3 bus1=81756165002410 bus2=81756165002410B
~ switch=y r1=1e-4 x1=1e-4 length=0.001 units=km
new line.SC_5284366 phases=3 bus1=81756225002410 bus2=81756225002410B
~ switch=y r1=1e-4 x1=1e-4 length=0.001 units=km
new line.SC_5284367 phases=3 bus1=81756245002410 bus2=81756245002410B
~ switch=y r1=1e-4 x1=1e-4 length=0.001 units=km
new line.SC_5284373 phases=3 bus1=81763055002148 bus2=81763055002148B
~ switch=y r1=1e-4 x1=1e-4 length=0.001 units=km
new line.SC_5284376 phases=3 bus1=81758025002148 bus2=81758025002148B
~ switch=y r1=1e-4 x1=1e-4 length=0.001 units=km
new line.SC_5284378 phases=3 bus1=81756035002410 bus2=81756035002410B
~ switch=y r1=1e-4 x1=1e-4 length=0.001 units=km
new line.SC_5284379 phases=3 bus1=81756355002410 bus2=81756355002410B
~ switch=y r1=1e-4 x1=1e-4 length=0.001 units=km
new line.SC_5284381 phases=3 bus1=81756065002410 bus2=81756065002410B
~ switch=y r1=1e-4 x1=1e-4 length=0.001 units=km
new line.SC_5284383 phases=3 bus1=81759185007258 bus2=81759185007258B
~ switch=y r1=1e-4 x1=1e-4 length=0.001 units=km
new line.SC_5284384 phases=3 bus1=81759275007258 bus2=81759275007258B
~ switch=y r1=1e-4 x1=1e-4 length=0.001 units=km
new line.SC_5284385 phases=3 bus1=81763245002148 bus2=81763245002148B
~ switch=y r1=1e-4 x1=1e-4 length=0.001 units=km
new line.SC_5284387 phases=3 bus1=81763505002148 bus2=81763505002148B
~ switch=y r1=1e-4 x1=1e-4 length=0.001 units=km
new line.SC_5284389 phases=3 bus1=81757535002148 bus2=81757535002148B
~ switch=y r1=1e-4 x1=1e-4 length=0.001 units=km
new line.SC_5284391 phases=3 bus1=81757765002148 bus2=81757765002148B
~ switch=y r1=1e-4 x1=1e-4 length=0.001 units=km
new line.SC_5284396 phases=3 bus1=81765715002148 bus2=81765715002148B
~ switch=y r1=1e-4 x1=1e-4 length=0.001 units=km
new line.SC_5284397 phases=3 bus1=81765695002148 bus2=81765695002148B
~ switch=y r1=1e-4 x1=1e-4 length=0.001 units=km
new line.SC_5284398 phases=3 bus1=81765665002148 bus2=81765665002148B
~ switch=y r1=1e-4 x1=1e-4 length=0.001 units=km
new line.SC_5284411 phases=3 bus1=81767115002148 bus2=81767115002148B
~ switch=y r1=1e-4 x1=1e-4 length=0.001 units=km
new line.SC_5284418 phases=3 bus1=81765045002148 bus2=81765045002148B
~ switch=y r1=1e-4 x1=1e-4 length=0.001 units=km
new line.SC_5284419 phases=3 bus1=81765025002148 bus2=81765025002148B
~ switch=y r1=1e-4 x1=1e-4 length=0.001 units=km
new line.SC_5287788 phases=3 bus1=82188015002188 bus2=82188015002188B
~ switch=y r1=1e-4 x1=1e-4 length=0.001 units=km
new line.SC_5287790 phases=3 bus1=82185865002188 bus2=82185865002188B
~ switch=y r1=1e-4 x1=1e-4 length=0.001 units=km
new line.SC_5287791 phases=3 bus1=82182275002188 bus2=82182275002188B
~ switch=y r1=1e-4 x1=1e-4 length=0.001 units=km
new line.SC_5287792 phases=3 bus1=82182725002211 bus2=82182725002211B
~ switch=y r1=1e-4 x1=1e-4 length=0.001 units=km
new line.SC_5287793 phases=3 bus1=82208865002188 bus2=82208865002188B
~ switch=y r1=1e-4 x1=1e-4 length=0.001 units=km
new line.SC_5287794 phases=3 bus1=82207695002188 bus2=82207695002188B
~ switch=y r1=1e-4 x1=1e-4 length=0.001 units=km
new line.SC_5287795 phases=3 bus1=82208965002188 bus2=82208965002188B
~ switch=y r1=1e-4 x1=1e-4 length=0.001 units=km
new line.SC_5287796 phases=3 bus1=82209015002188 bus2=82209015002188B
~ switch=y r1=1e-4 x1=1e-4 length=0.001 units=km
new line.SC_5287798 phases=3 bus1=82209235002188 bus2=82209235002188B
~ switch=y r1=1e-4 x1=1e-4 length=0.001 units=km
new line.SC_5287799 phases=3 bus1=82206765002188 bus2=82206765002188B
~ switch=y r1=1e-4 x1=1e-4 length=0.001 units=km
new line.SC_5287801 phases=3 bus1=80471845002188 bus2=80471845002188B
~ switch=y r1=1e-4 x1=1e-4 length=0.001 units=km
new line.SC_5287804 phases=3 bus1=82187015002188 bus2=82187015002188B
~ switch=y r1=1e-4 x1=1e-4 length=0.001 units=km
new line.SC_5287805 phases=3 bus1=82182675002188 bus2=82182675002188B
~ switch=y r1=1e-4 x1=1e-4 length=0.001 units=km
new line.SC_5287806 phases=3 bus1=82199005002211 bus2=82199005002211B
~ switch=y r1=1e-4 x1=1e-4 length=0.001 units=km
new line.SC_5287943 phases=3 bus1=82190765002188 bus2=82190765002188B
~ switch=y r1=1e-4 x1=1e-4 length=0.001 units=km
new line.SC_5287945 phases=3 bus1=82194925002188 bus2=82194925002188B
~ switch=y r1=1e-4 x1=1e-4 length=0.001 units=km
new line.SC_5287946 phases=3 bus1=82194305002188 bus2=82194305002188B
~ switch=y r1=1e-4 x1=1e-4 length=0.001 units=km
new line.SC_5287948 phases=3 bus1=82194355002188 bus2=82194355002188B
~ switch=y r1=1e-4 x1=1e-4 length=0.001 units=km
new line.SC_5287949 phases=3 bus1=82194445002188 bus2=82194445002188B
~ switch=y r1=1e-4 x1=1e-4 length=0.001 units=km
new line.SC_5287950 phases=3 bus1=82195625002188 bus2=82195625002188B
~ switch=y r1=1e-4 x1=1e-4 length=0.001 units=km
new line.SC_5287951 phases=3 bus1=82195815002188 bus2=82195815002188B
~ switch=y r1=1e-4 x1=1e-4 length=0.001 units=km
new line.SC_5287954 phases=3 bus1=82194895002188 bus2=82194895002188B
~ switch=y r1=1e-4 x1=1e-4 length=0.001 units=km
new line.SC_5287955 phases=3 bus1=82194065002188 bus2=82194065002188B
~ switch=y r1=1e-4 x1=1e-4 length=0.001 units=km
new line.SC_5287957 phases=3 bus1=82193785002188 bus2=82193785002188B
~ switch=y r1=1e-4 x1=1e-4 length=0.001 units=km
new line.SC_5287958 phases=3 bus1=82194905002188 bus2=82194905002188B
~ switch=y r1=1e-4 x1=1e-4 length=0.001 units=km
new line.SC_5287959 phases=3 bus1=82188785002188 bus2=82188785002188B
~ switch=y r1=1e-4 x1=1e-4 length=0.001 units=km
new line.SC_5287961 phases=3 bus1=82192855002188 bus2=82192855002188B
~ switch=y r1=1e-4 x1=1e-4 length=0.001 units=km
new line.SC_5288027 phases=3 bus1=82192905002188 bus2=82192905002188B
~ switch=y r1=1e-4 x1=1e-4 length=0.001 units=km
new line.SC_5288028 phases=3 bus1=82187125002188 bus2=82187125002188B
~ switch=y r1=1e-4 x1=1e-4 length=0.001 units=km
new line.SC_5288030 phases=3 bus1=82187435002188 bus2=82187435002188B
~ switch=y r1=1e-4 x1=1e-4 length=0.001 units=km
new line.SC_5288032 phases=3 bus1=82187565002188 bus2=82187565002188B
~ switch=y r1=1e-4 x1=1e-4 length=0.001 units=km
new line.SC_5288033 phases=3 bus1=82187605002188 bus2=82187605002188B
~ switch=y r1=1e-4 x1=1e-4 length=0.001 units=km
new line.SC_5288037 phases=3 bus1=82188485002188 bus2=82188485002188B
~ switch=y r1=1e-4 x1=1e-4 length=0.001 units=km
new line.SC_5288083 phases=3 bus1=82191975002188 bus2=82191975002188B
~ switch=y r1=1e-4 x1=1e-4 length=0.001 units=km
new line.SC_5288084 phases=3 bus1=82191995002188 bus2=82191995002188B
~ switch=y r1=1e-4 x1=1e-4 length=0.001 units=km
new line.SC_5288085 phases=3 bus1=82192215002188 bus2=82192215002188B
~ switch=y r1=1e-4 x1=1e-4 length=0.001 units=km
new line.SC_5288086 phases=3 bus1=82196795002188 bus2=82196795002188B
~ switch=y r1=1e-4 x1=1e-4 length=0.001 units=km
new line.SC_5288087 phases=3 bus1=82196805002188 bus2=82196805002188B
~ switch=y r1=1e-4 x1=1e-4 length=0.001 units=km
new line.SC_5288089 phases=3 bus1=82191405002188 bus2=82191405002188B
~ switch=y r1=1e-4 x1=1e-4 length=0.001 units=km
new line.SC_5288090 phases=3 bus1=82191485002188 bus2=82191485002188B
~ switch=y r1=1e-4 x1=1e-4 length=0.001 units=km
new line.SC_5288092 phases=3 bus1=82193125002188 bus2=82193125002188B
~ switch=y r1=1e-4 x1=1e-4 length=0.001 units=km
new line.SC_5288093 phases=3 bus1=82192975002188 bus2=82192975002188B
~ switch=y r1=1e-4 x1=1e-4 length=0.001 units=km
new line.SC_5288095 phases=3 bus1=82193505002188 bus2=82193505002188B
~ switch=y r1=1e-4 x1=1e-4 length=0.001 units=km
new line.SC_5288096 phases=3 bus1=82234315002188 bus2=82234315002188B
~ switch=y r1=1e-4 x1=1e-4 length=0.001 units=km
new line.SC_5288097 phases=3 bus1=82193875002188 bus2=82193875002188B
~ switch=y r1=1e-4 x1=1e-4 length=0.001 units=km
new line.SC_5288098 phases=3 bus1=82193945002188 bus2=82193945002188B
~ switch=y r1=1e-4 x1=1e-4 length=0.001 units=km
new line.SC_5288099 phases=3 bus1=82193515002188 bus2=82193515002188B
~ switch=y r1=1e-4 x1=1e-4 length=0.001 units=km
new line.SC_5288101 phases=3 bus1=82197015002188 bus2=82197015002188B
~ switch=y r1=1e-4 x1=1e-4 length=0.001 units=km
new line.SC_5288103 phases=3 bus1=82191745002188 bus2=82191745002188B
~ switch=y r1=1e-4 x1=1e-4 length=0.001 units=km
new line.SC_5288104 phases=3 bus1=82191805002188 bus2=82191805002188B
~ switch=y r1=1e-4 x1=1e-4 length=0.001 units=km
new line.SC_5288105 phases=3 bus1=82198295002188 bus2=82198295002188B
~ switch=y r1=1e-4 x1=1e-4 length=0.001 units=km
new line.SC_5288106 phases=3 bus1=82198115002188 bus2=82198115002188B
~ switch=y r1=1e-4 x1=1e-4 length=0.001 units=km
new line.SC_5288107 phases=3 bus1=82198155002188 bus2=82198155002188B
~ switch=y r1=1e-4 x1=1e-4 length=0.001 units=km
new line.SC_5288108 phases=3 bus1=82198195002188 bus2=82198195002188B
~ switch=y r1=1e-4 x1=1e-4 length=0.001 units=km
new line.SC_5288109 phases=3 bus1=82189655002188 bus2=82189655002188B
~ switch=y r1=1e-4 x1=1e-4 length=0.001 units=km
new line.SC_5288110 phases=3 bus1=82187965002188 bus2=82187965002188B
~ switch=y r1=1e-4 x1=1e-4 length=0.001 units=km
new line.SC_5288111 phases=3 bus1=82186425002188 bus2=82186425002188B
~ switch=y r1=1e-4 x1=1e-4 length=0.001 units=km
new line.SC_5288112 phases=3 bus1=82189035002188 bus2=82189035002188B
~ switch=y r1=1e-4 x1=1e-4 length=0.001 units=km
new line.SC_5288125 phases=3 bus1=82189125002188 bus2=82189125002188B
~ switch=y r1=1e-4 x1=1e-4 length=0.001 units=km
new line.SC_5288126 phases=3 bus1=82194565002188 bus2=82194565002188B
~ switch=y r1=1e-4 x1=1e-4 length=0.001 units=km
new line.SC_5288127 phases=3 bus1=82194575002188 bus2=82194575002188B
~ switch=y r1=1e-4 x1=1e-4 length=0.001 units=km
new line.SC_5288128 phases=3 bus1=86397995002188 bus2=86397995002188B
~ switch=y r1=1e-4 x1=1e-4 length=0.001 units=km
new line.SC_5288129 phases=3 bus1=82187765002188 bus2=82187765002188B
~ switch=y r1=1e-4 x1=1e-4 length=0.001 units=km
new line.SC_5288130 phases=3 bus1=82184985002188 bus2=82184985002188B
~ switch=y r1=1e-4 x1=1e-4 length=0.001 units=km
new line.SC_5288131 phases=3 bus1=82184665002188 bus2=82184665002188B
~ switch=y r1=1e-4 x1=1e-4 length=0.001 units=km
new line.SC_5288132 phases=3 bus1=82184855002188 bus2=82184855002188B
~ switch=y r1=1e-4 x1=1e-4 length=0.001 units=km
new line.SC_5288133 phases=3 bus1=82182245002188 bus2=82182245002188B
~ switch=y r1=1e-4 x1=1e-4 length=0.001 units=km
new line.SC_5288135 phases=3 bus1=82202515002188 bus2=82202515002188B
~ switch=y r1=1e-4 x1=1e-4 length=0.001 units=km
new line.SC_5288138 phases=3 bus1=82200585002188 bus2=82200585002188B
~ switch=y r1=1e-4 x1=1e-4 length=0.001 units=km
new line.SC_5288143 phases=3 bus1=82204825002188 bus2=82204825002188B
~ switch=y r1=1e-4 x1=1e-4 length=0.001 units=km
new line.SC_5288144 phases=3 bus1=94114865002188 bus2=94114865002188B
~ switch=y r1=1e-4 x1=1e-4 length=0.001 units=km
new line.SC_5288146 phases=3 bus1=82210005002188 bus2=82210005002188B
~ switch=y r1=1e-4 x1=1e-4 length=0.001 units=km
new line.SC_5288147 phases=3 bus1=82211415002188 bus2=82211415002188B
~ switch=y r1=1e-4 x1=1e-4 length=0.001 units=km
new line.SC_5288149 phases=3 bus1=82198835002188 bus2=82198835002188B
~ switch=y r1=1e-4 x1=1e-4 length=0.001 units=km
new line.SC_5288150 phases=3 bus1=82198825002188 bus2=82198825002188B
~ switch=y r1=1e-4 x1=1e-4 length=0.001 units=km
new line.SC_5288151 phases=3 bus1=82201165002188 bus2=82201165002188B
~ switch=y r1=1e-4 x1=1e-4 length=0.001 units=km
new line.SC_5288152 phases=3 bus1=82202135002188 bus2=82202135002188B
~ switch=y r1=1e-4 x1=1e-4 length=0.001 units=km
new line.SC_5288153 phases=3 bus1=82202145002188 bus2=82202145002188B
~ switch=y r1=1e-4 x1=1e-4 length=0.001 units=km
new line.SC_5288154 phases=3 bus1=82202735002188 bus2=82202735002188B
~ switch=y r1=1e-4 x1=1e-4 length=0.001 units=km
new line.SC_5288155 phases=3 bus1=82202775002188 bus2=82202775002188B
~ switch=y r1=1e-4 x1=1e-4 length=0.001 units=km
new line.SC_5288157 phases=3 bus1=82204005002188 bus2=82204005002188B
~ switch=y r1=1e-4 x1=1e-4 length=0.001 units=km
new line.SC_5288158 phases=3 bus1=82209445002188 bus2=82209445002188B
~ switch=y r1=1e-4 x1=1e-4 length=0.001 units=km
new line.SC_5288159 phases=3 bus1=82211875002188 bus2=82211875002188B
~ switch=y r1=1e-4 x1=1e-4 length=0.001 units=km
new line.SC_5288160 phases=3 bus1=82198055002188 bus2=82198055002188B
~ switch=y r1=1e-4 x1=1e-4 length=0.001 units=km
new line.SC_5288162 phases=3 bus1=82220515002188 bus2=82220515002188B
~ switch=y r1=1e-4 x1=1e-4 length=0.001 units=km
new line.SC_5288174 phases=3 bus1=82219855002188 bus2=82219855002188B
~ switch=y r1=1e-4 x1=1e-4 length=0.001 units=km
new line.SC_5288177 phases=3 bus1=82219545002188 bus2=82219545002188B
~ switch=y r1=1e-4 x1=1e-4 length=0.001 units=km
new line.SC_5288178 phases=3 bus1=82220415002188 bus2=82220415002188B
~ switch=y r1=1e-4 x1=1e-4 length=0.001 units=km
new line.SC_5288180 phases=3 bus1=82220665002188 bus2=82220665002188B
~ switch=y r1=1e-4 x1=1e-4 length=0.001 units=km
new line.SC_5288201 phases=3 bus1=82194125002188 bus2=82194125002188B
~ switch=y r1=1e-4 x1=1e-4 length=0.001 units=km
new line.SC_5288207 phases=3 bus1=82190825002188 bus2=82190825002188B
~ switch=y r1=1e-4 x1=1e-4 length=0.001 units=km
new line.SC_5288209 phases=3 bus1=82197995002188 bus2=82197995002188B
~ switch=y r1=1e-4 x1=1e-4 length=0.001 units=km
new line.SC_5288213 phases=3 bus1=82188585002188 bus2=82188585002188B
~ switch=y r1=1e-4 x1=1e-4 length=0.001 units=km
new line.SC_5288224 phases=3 bus1=82218685002188 bus2=82218685002188B
~ switch=y r1=1e-4 x1=1e-4 length=0.001 units=km
new line.SC_5288225 phases=3 bus1=82219085002188 bus2=82219085002188B
~ switch=y r1=1e-4 x1=1e-4 length=0.001 units=km
new line.SC_5288227 phases=3 bus1=82218695002188 bus2=82218695002188B
~ switch=y r1=1e-4 x1=1e-4 length=0.001 units=km
new line.SC_5288845 phases=3 bus1=82280405002413 bus2=82280405002413B
~ switch=y r1=1e-4 x1=1e-4 length=0.001 units=km
new line.SC_5288879 phases=3 bus1=82271515002210 bus2=82271515002210B
~ switch=y r1=1e-4 x1=1e-4 length=0.001 units=km
new line.SC_5288882 phases=3 bus1=82276975002413 bus2=82276975002413B
~ switch=y r1=1e-4 x1=1e-4 length=0.001 units=km
new line.SC_5288883 phases=3 bus1=82279745002413 bus2=82279745002413B
~ switch=y r1=1e-4 x1=1e-4 length=0.001 units=km
new line.SC_5288884 phases=3 bus1=82277315002413 bus2=82277315002413B
~ switch=y r1=1e-4 x1=1e-4 length=0.001 units=km
new line.SC_5288885 phases=3 bus1=82277785002413 bus2=82277785002413B
~ switch=y r1=1e-4 x1=1e-4 length=0.001 units=km
new line.SC_5288887 phases=3 bus1=80535045002210 bus2=80535045002210B
~ switch=y r1=1e-4 x1=1e-4 length=0.001 units=km
new line.SC_5288888 phases=3 bus1=80529675002413 bus2=80529675002413B
~ switch=y r1=1e-4 x1=1e-4 length=0.001 units=km
new line.SC_5288889 phases=3 bus1=82281675002210 bus2=82281675002210B
~ switch=y r1=1e-4 x1=1e-4 length=0.001 units=km
new line.SC_5288890 phases=3 bus1=82276465002413 bus2=82276465002413B
~ switch=y r1=1e-4 x1=1e-4 length=0.001 units=km
new line.SC_5288963 phases=3 bus1=82271485002210 bus2=82271485002210B
~ switch=y r1=1e-4 x1=1e-4 length=0.001 units=km
new line.SC_5288977 phases=3 bus1=82278115002413 bus2=82278115002413B
~ switch=y r1=1e-4 x1=1e-4 length=0.001 units=km
new line.SC_5288981 phases=3 bus1=82278395002413 bus2=82278395002413B
~ switch=y r1=1e-4 x1=1e-4 length=0.001 units=km
new line.SC_5288985 phases=3 bus1=80587815002413 bus2=80587815002413B
~ switch=y r1=1e-4 x1=1e-4 length=0.001 units=km
new line.SC_5288987 phases=3 bus1=82280325002413 bus2=82280325002413B
~ switch=y r1=1e-4 x1=1e-4 length=0.001 units=km
new line.SC_5288988 phases=3 bus1=82276235002413 bus2=82276235002413B
~ switch=y r1=1e-4 x1=1e-4 length=0.001 units=km
new line.SC_5288990 phases=3 bus1=82278925002413 bus2=82278925002413B
~ switch=y r1=1e-4 x1=1e-4 length=0.001 units=km
new line.SC_5288991 phases=3 bus1=82279895002413 bus2=82279895002413B
~ switch=y r1=1e-4 x1=1e-4 length=0.001 units=km
new line.SC_5288992 phases=3 bus1=82281125002413 bus2=82281125002413B
~ switch=y r1=1e-4 x1=1e-4 length=0.001 units=km
new line.SC_5288995 phases=3 bus1=82276825002413 bus2=82276825002413B
~ switch=y r1=1e-4 x1=1e-4 length=0.001 units=km
new line.SC_5289105 phases=3 bus1=82282475002211 bus2=82282475002211B
~ switch=y r1=1e-4 x1=1e-4 length=0.001 units=km
new line.SC_5289106 phases=3 bus1=82300015002211 bus2=82300015002211B
~ switch=y r1=1e-4 x1=1e-4 length=0.001 units=km
new line.SC_5289107 phases=3 bus1=82299705002211 bus2=82299705002211B
~ switch=y r1=1e-4 x1=1e-4 length=0.001 units=km
new line.SC_5289108 phases=3 bus1=82288695002211 bus2=82288695002211B
~ switch=y r1=1e-4 x1=1e-4 length=0.001 units=km
new line.SC_5289109 phases=3 bus1=82285775002409 bus2=82285775002409B
~ switch=y r1=1e-4 x1=1e-4 length=0.001 units=km
new line.SC_5289110 phases=3 bus1=82294435002211 bus2=82294435002211B
~ switch=y r1=1e-4 x1=1e-4 length=0.001 units=km
new line.SC_5289111 phases=3 bus1=82301355002211 bus2=82301355002211B
~ switch=y r1=1e-4 x1=1e-4 length=0.001 units=km
new line.SC_5289112 phases=3 bus1=82303605002211 bus2=82303605002211B
~ switch=y r1=1e-4 x1=1e-4 length=0.001 units=km
new line.SC_5289113 phases=3 bus1=82307355002211 bus2=82307355002211B
~ switch=y r1=1e-4 x1=1e-4 length=0.001 units=km
new line.SC_5289114 phases=3 bus1=82308275002211 bus2=82308275002211B
~ switch=y r1=1e-4 x1=1e-4 length=0.001 units=km
new line.SC_5289116 phases=3 bus1=82308365002211 bus2=82308365002211B
~ switch=y r1=1e-4 x1=1e-4 length=0.001 units=km
new line.SC_5289118 phases=3 bus1=82309905002211 bus2=82309905002211B
~ switch=y r1=1e-4 x1=1e-4 length=0.001 units=km
new line.SC_5289144 phases=3 bus1=82295685002211 bus2=82295685002211B
~ switch=y r1=1e-4 x1=1e-4 length=0.001 units=km
new line.SC_5289145 phases=3 bus1=82297135002211 bus2=82297135002211B
~ switch=y r1=1e-4 x1=1e-4 length=0.001 units=km
new line.SC_5289147 phases=3 bus1=82299935002211 bus2=82299935002211B
~ switch=y r1=1e-4 x1=1e-4 length=0.001 units=km
new line.SC_5289148 phases=3 bus1=82300025002211 bus2=82300025002211B
~ switch=y r1=1e-4 x1=1e-4 length=0.001 units=km
new line.SC_5289149 phases=3 bus1=82299965002211 bus2=82299965002211B
~ switch=y r1=1e-4 x1=1e-4 length=0.001 units=km
new line.SC_5289150 phases=3 bus1=82299895002211 bus2=82299895002211B
~ switch=y r1=1e-4 x1=1e-4 length=0.001 units=km
new line.SC_5289152 phases=3 bus1=82283535002211 bus2=82283535002211B
~ switch=y r1=1e-4 x1=1e-4 length=0.001 units=km
new line.SC_5289153 phases=3 bus1=82298245002211 bus2=82298245002211B
~ switch=y r1=1e-4 x1=1e-4 length=0.001 units=km
new line.SC_5289154 phases=3 bus1=82298435002211 bus2=82298435002211B
~ switch=y r1=1e-4 x1=1e-4 length=0.001 units=km
new line.SC_5289155 phases=3 bus1=82298855002211 bus2=82298855002211B
~ switch=y r1=1e-4 x1=1e-4 length=0.001 units=km
new line.SC_5289156 phases=3 bus1=82299065002211 bus2=82299065002211B
~ switch=y r1=1e-4 x1=1e-4 length=0.001 units=km
new line.SC_5289157 phases=3 bus1=82299175002211 bus2=82299175002211B
~ switch=y r1=1e-4 x1=1e-4 length=0.001 units=km
new line.SC_5289158 phases=3 bus1=82284055002211 bus2=82284055002211B
~ switch=y r1=1e-4 x1=1e-4 length=0.001 units=km
new line.SC_5289159 phases=3 bus1=82284175002211 bus2=82284175002211B
~ switch=y r1=1e-4 x1=1e-4 length=0.001 units=km
new line.SC_5289161 phases=3 bus1=82284485002211 bus2=82284485002211B
~ switch=y r1=1e-4 x1=1e-4 length=0.001 units=km
new line.SC_5289163 phases=3 bus1=82290235002211 bus2=82290235002211B
~ switch=y r1=1e-4 x1=1e-4 length=0.001 units=km
new line.SC_5289164 phases=3 bus1=82288725002211 bus2=82288725002211B
~ switch=y r1=1e-4 x1=1e-4 length=0.001 units=km
new line.SC_5289165 phases=3 bus1=82285505002211 bus2=82285505002211B
~ switch=y r1=1e-4 x1=1e-4 length=0.001 units=km
new line.SC_5289166 phases=3 bus1=82294475002211 bus2=82294475002211B
~ switch=y r1=1e-4 x1=1e-4 length=0.001 units=km
new line.SC_5289167 phases=3 bus1=82294925002211 bus2=82294925002211B
~ switch=y r1=1e-4 x1=1e-4 length=0.001 units=km
new line.SC_5289168 phases=3 bus1=82290755002211 bus2=82290755002211B
~ switch=y r1=1e-4 x1=1e-4 length=0.001 units=km
new line.SC_5289171 phases=3 bus1=82294595002211 bus2=82294595002211B
~ switch=y r1=1e-4 x1=1e-4 length=0.001 units=km
new line.SC_5289172 phases=3 bus1=82293875002211 bus2=82293875002211B
~ switch=y r1=1e-4 x1=1e-4 length=0.001 units=km
new line.SC_5289178 phases=3 bus1=82309225002211 bus2=82309225002211B
~ switch=y r1=1e-4 x1=1e-4 length=0.001 units=km
new line.SC_5289179 phases=3 bus1=82309945002211 bus2=82309945002211B
~ switch=y r1=1e-4 x1=1e-4 length=0.001 units=km
new line.SC_5289180 phases=3 bus1=82310135002211 bus2=82310135002211B
~ switch=y r1=1e-4 x1=1e-4 length=0.001 units=km
new line.SC_5289187 phases=3 bus1=82302445002211 bus2=82302445002211B
~ switch=y r1=1e-4 x1=1e-4 length=0.001 units=km
new line.SC_5289195 phases=3 bus1=82309485002211 bus2=82309485002211B
~ switch=y r1=1e-4 x1=1e-4 length=0.001 units=km
new line.SC_5289196 phases=3 bus1=82307995002211 bus2=82307995002211B
~ switch=y r1=1e-4 x1=1e-4 length=0.001 units=km
new line.SC_5289201 phases=3 bus1=82319625002211 bus2=82319625002211B
~ switch=y r1=1e-4 x1=1e-4 length=0.001 units=km
new line.SC_5289203 phases=3 bus1=82311685002211 bus2=82311685002211B
~ switch=y r1=1e-4 x1=1e-4 length=0.001 units=km
new line.SC_5289341 phases=3 bus1=82327555002414 bus2=82327555002414B
~ switch=y r1=1e-4 x1=1e-4 length=0.001 units=km
new line.SC_5289342 phases=3 bus1=82328655002414 bus2=82328655002414B
~ switch=y r1=1e-4 x1=1e-4 length=0.001 units=km
new line.SC_5289343 phases=3 bus1=82325935002414 bus2=82325935002414B
~ switch=y r1=1e-4 x1=1e-4 length=0.001 units=km
new line.SC_5289344 phases=3 bus1=82338825002414 bus2=82338825002414B
~ switch=y r1=1e-4 x1=1e-4 length=0.001 units=km
new line.SC_5289345 phases=3 bus1=82340815002414 bus2=82340815002414B
~ switch=y r1=1e-4 x1=1e-4 length=0.001 units=km
new line.SC_5289346 phases=3 bus1=82341945002414 bus2=82341945002414B
~ switch=y r1=1e-4 x1=1e-4 length=0.001 units=km
new line.SC_5289347 phases=3 bus1=82351245002414 bus2=82351245002414B
~ switch=y r1=1e-4 x1=1e-4 length=0.001 units=km
new line.SC_5289348 phases=3 bus1=82182735002414 bus2=82182735002414B
~ switch=y r1=1e-4 x1=1e-4 length=0.001 units=km
new line.SC_5289349 phases=3 bus1=80501525002414 bus2=80501525002414B
~ switch=y r1=1e-4 x1=1e-4 length=0.001 units=km
new line.SC_5289350 phases=3 bus1=82182835002414 bus2=82182835002414B
~ switch=y r1=1e-4 x1=1e-4 length=0.001 units=km
new line.SC_5289351 phases=3 bus1=82321345002414 bus2=82321345002414B
~ switch=y r1=1e-4 x1=1e-4 length=0.001 units=km
new line.SC_5289353 phases=3 bus1=82323935002414 bus2=82323935002414B
~ switch=y r1=1e-4 x1=1e-4 length=0.001 units=km
new line.SC_5289355 phases=3 bus1=80439935002414 bus2=80439935002414B
~ switch=y r1=1e-4 x1=1e-4 length=0.001 units=km
new line.SC_5289399 phases=3 bus1=82327485002414 bus2=82327485002414B
~ switch=y r1=1e-4 x1=1e-4 length=0.001 units=km
new line.SC_5289401 phases=3 bus1=82334215002414 bus2=82334215002414B
~ switch=y r1=1e-4 x1=1e-4 length=0.001 units=km
new line.SC_5289403 phases=3 bus1=82335985002414 bus2=82335985002414B
~ switch=y r1=1e-4 x1=1e-4 length=0.001 units=km
new line.SC_5289404 phases=3 bus1=82336685002414 bus2=82336685002414B
~ switch=y r1=1e-4 x1=1e-4 length=0.001 units=km
new line.SC_5289405 phases=3 bus1=82338875002414 bus2=82338875002414B
~ switch=y r1=1e-4 x1=1e-4 length=0.001 units=km
new line.SC_5289406 phases=3 bus1=82339865002414 bus2=82339865002414B
~ switch=y r1=1e-4 x1=1e-4 length=0.001 units=km
...